<?xml version="1.0" encoding="UTF-8"?>

<!-- generated on 2025-09-16 08:20:46 by Eclipse SUMO netedit Version 1.24.0
<neteditConfiguration xmlns:xsi="http://www.w3.org/2001/XMLSchema-instance" xsi:noNamespaceSchemaLocation="http://sumo.dlr.de/xsd/neteditConfiguration.xsd">

    <input>
        <sumo-net-file value="C:\Users\phamk\smart-traffic-light\Visual Enviroment\Network\floww.net.xml"/>
    </input>

    <output>
        <output-file value="C:\Users\phamk\smart-traffic-light\Visual Enviroment\Network\floww.net.xml"/>
    </output>

    <processing>
        <offset.disable-normalization value="true"/>
    </processing>

    <junctions>
        <no-turnarounds value="true"/>
    </junctions>

    <netedit>
        <new-network value="false"/>
    </netedit>

</neteditConfiguration>
-->

<net version="1.20" junctionCornerDetail="5" limitTurnSpeed="5.50" xmlns:xsi="http://www.w3.org/2001/XMLSchema-instance" xsi:noNamespaceSchemaLocation="http://sumo.dlr.de/xsd/net_file.xsd">

    <location netOffset="0.00,0.00" convBoundary="-200.00,-400.00,200.00,0.00" origBoundary="10000000000.00,10000000000.00,-10000000000.00,-10000000000.00" projParameter="!"/>

    <edge id=":J4_0" function="internal">
        <lane id=":J4_0_0" index="0" speed="6.51" length="9.03" shape="-4.80,-189.60 -5.15,-192.05 -6.20,-193.80 -7.95,-194.85 -10.40,-195.20"/>
    </edge>
    <edge id=":J4_1" function="internal">
        <lane id=":J4_1_0" index="0" speed="13.89" length="20.80" shape="-4.80,-189.60 -4.80,-210.40"/>
        <lane id=":J4_1_1" index="1" speed="13.89" length="20.80" shape="-1.60,-189.60 -1.60,-210.40"/>
    </edge>
    <edge id=":J4_3" function="internal">
        <lane id=":J4_3_0" index="0" speed="9.26" length="5.01" shape="-1.60,-189.60 -0.89,-194.56"/>
    </edge>
    <edge id=":J4_16" function="internal">
        <lane id=":J4_16_0" index="0" speed="9.26" length="14.34" shape="-0.89,-194.56 -0.85,-194.85 1.40,-198.60 5.15,-200.85 10.40,-201.60"/>
    </edge>
    <edge id=":J4_4" function="internal">
        <lane id=":J4_4_0" index="0" speed="6.51" length="9.03" shape="10.40,-195.20 7.95,-194.85 6.20,-193.80 5.15,-192.05 4.80,-189.60"/>
    </edge>
    <edge id=":J4_5" function="internal">
        <lane id=":J4_5_0" index="0" speed="13.89" length="20.80" shape="10.40,-195.20 -10.40,-195.20"/>
        <lane id=":J4_5_1" index="1" speed="13.89" length="20.80" shape="10.40,-198.40 -10.40,-198.40"/>
    </edge>
    <edge id=":J4_7" function="internal">
        <lane id=":J4_7_0" index="0" speed="9.26" length="5.01" shape="10.40,-198.40 5.44,-199.11"/>
    </edge>
    <edge id=":J4_17" function="internal">
        <lane id=":J4_17_0" index="0" speed="9.26" length="14.34" shape="5.44,-199.11 5.15,-199.15 1.40,-201.40 -0.85,-205.15 -1.60,-210.40"/>
    </edge>
    <edge id=":J4_8" function="internal">
        <lane id=":J4_8_0" index="0" speed="6.51" length="9.03" shape="4.80,-210.40 5.15,-207.95 6.20,-206.20 7.95,-205.15 10.40,-204.80"/>
    </edge>
    <edge id=":J4_9" function="internal">
        <lane id=":J4_9_0" index="0" speed="13.89" length="20.80" shape="4.80,-210.40 4.80,-189.60"/>
        <lane id=":J4_9_1" index="1" speed="13.89" length="20.80" shape="1.60,-210.40 1.60,-189.60"/>
    </edge>
    <edge id=":J4_11" function="internal">
        <lane id=":J4_11_0" index="0" speed="9.26" length="5.01" shape="1.60,-210.40 0.89,-205.44"/>
    </edge>
    <edge id=":J4_18" function="internal">
        <lane id=":J4_18_0" index="0" speed="9.26" length="14.34" shape="0.89,-205.44 0.85,-205.15 -1.40,-201.40 -5.15,-199.15 -10.40,-198.40"/>
    </edge>
    <edge id=":J4_12" function="internal">
        <lane id=":J4_12_0" index="0" speed="6.51" length="9.03" shape="-10.40,-204.80 -7.95,-205.15 -6.20,-206.20 -5.15,-207.95 -4.80,-210.40"/>
    </edge>
    <edge id=":J4_13" function="internal">
        <lane id=":J4_13_0" index="0" speed="13.89" length="20.80" shape="-10.40,-204.80 10.40,-204.80"/>
        <lane id=":J4_13_1" index="1" speed="13.89" length="20.80" shape="-10.40,-201.60 10.40,-201.60"/>
    </edge>
    <edge id=":J4_15" function="internal">
        <lane id=":J4_15_0" index="0" speed="9.26" length="5.01" shape="-10.40,-201.60 -5.44,-200.89"/>
    </edge>
    <edge id=":J4_19" function="internal">
        <lane id=":J4_19_0" index="0" speed="9.26" length="14.34" shape="-5.44,-200.89 -5.15,-200.85 -1.40,-198.60 0.85,-194.85 1.60,-189.60"/>
    </edge>

    <edge id="-E1" from="J4" to="J2" priority="-1">
        <lane id="-E1_0" index="0" speed="13.89" length="189.60" shape="-10.40,-195.20 -200.00,-195.20"/>
        <lane id="-E1_1" index="1" speed="13.89" length="189.60" shape="-10.40,-198.40 -200.00,-198.40"/>
    </edge>
    <edge id="-E1.200" from="J3" to="J4" priority="-1">
        <lane id="-E1.200_0" index="0" speed="13.89" length="189.60" shape="200.00,-195.20 10.40,-195.20"/>
        <lane id="-E1.200_1" index="1" speed="13.89" length="189.60" shape="200.00,-198.40 10.40,-198.40"/>
    </edge>
    <edge id="-E2" from="J4" to="J5" priority="-1">
        <lane id="-E2_0" index="0" speed="13.89" length="189.60" shape="4.80,-189.60 4.80,0.00"/>
        <lane id="-E2_1" index="1" speed="13.89" length="189.60" shape="1.60,-189.60 1.60,0.00"/>
    </edge>
    <edge id="-E3" from="J6" to="J4" priority="-1">
        <lane id="-E3_0" index="0" speed="13.89" length="189.60" shape="4.80,-400.00 4.80,-210.40"/>
        <lane id="-E3_1" index="1" speed="13.89" length="189.60" shape="1.60,-400.00 1.60,-210.40"/>
    </edge>
    <edge id="E1" from="J2" to="J4" priority="-1">
        <lane id="E1_0" index="0" speed="13.89" length="189.60" shape="-200.00,-204.80 -10.40,-204.80"/>
        <lane id="E1_1" index="1" speed="13.89" length="189.60" shape="-200.00,-201.60 -10.40,-201.60"/>
    </edge>
    <edge id="E1.200" from="J4" to="J3" priority="-1">
        <lane id="E1.200_0" index="0" speed="13.89" length="189.60" shape="10.40,-204.80 200.00,-204.80"/>
        <lane id="E1.200_1" index="1" speed="13.89" length="189.60" shape="10.40,-201.60 200.00,-201.60"/>
    </edge>
    <edge id="E2" from="J5" to="J4" priority="-1">
        <lane id="E2_0" index="0" speed="13.89" length="189.60" shape="-4.80,0.00 -4.80,-189.60"/>
        <lane id="E2_1" index="1" speed="13.89" length="189.60" shape="-1.60,0.00 -1.60,-189.60"/>
    </edge>
    <edge id="E3" from="J4" to="J6" priority="-1">
        <lane id="E3_0" index="0" speed="13.89" length="189.60" shape="-4.80,-210.40 -4.80,-400.00"/>
        <lane id="E3_1" index="1" speed="13.89" length="189.60" shape="-1.60,-210.40 -1.60,-400.00"/>
    </edge>

    <tlLogic id="J4" type="static" programID="0" offset="0">
        <phase duration="42" state="GGGgrrrrGGGgrrrr"/>
        <phase duration="3"  state="yyyyrrrryyyyrrrr"/>
        <phase duration="42" state="rrrrGGGgrrrrGGGg"/>
        <phase duration="3"  state="rrrryyyyrrrryyyy"/>
    </tlLogic>

    <junction id="J2" type="dead_end" x="-200.00" y="-200.00" incLanes="-E1_0 -E1_1" intLanes="" shape="-200.00,-200.00 -200.00,-193.60 -200.00,-200.00"/>
    <junction id="J3" type="dead_end" x="200.00" y="-200.00" incLanes="E1.200_0 E1.200_1" intLanes="" shape="200.00,-200.00 200.00,-206.40 200.00,-200.00"/>
    <junction id="J4" type="traffic_light" x="0.00" y="-200.00" incLanes="E2_0 E2_1 -E1.200_0 -E1.200_1 -E3_0 -E3_1 E1_0 E1_1" intLanes=":J4_0_0 :J4_1_0 :J4_1_1 :J4_16_0 :J4_4_0 :J4_5_0 :J4_5_1 :J4_17_0 :J4_8_0 :J4_9_0 :J4_9_1 :J4_18_0 :J4_12_0 :J4_13_0 :J4_13_1 :J4_19_0" shape="-6.40,-189.60 6.40,-189.60 6.84,-191.82 7.40,-192.60 8.18,-193.16 9.18,-193.49 10.40,-193.60 10.40,-206.40 8.18,-206.84 7.40,-207.40 6.84,-208.18 6.51,-209.18 6.40,-210.40 -6.40,-210.40 -6.84,-208.18 -7.40,-207.40 -8.18,-206.84 -9.18,-206.51 -10.40,-206.40 -10.40,-193.60 -8.18,-193.16 -7.40,-192.60 -6.84,-191.82 -6.51,-190.82">
        <request index="0"  response="0000000000000000" foes="0000000001100000" cont="0"/>
        <request index="1"  response="1000000010000000" foes="1111100011100000" cont="0"/>
        <request index="2"  response="1000000010000000" foes="1111100011100000" cont="0"/>
        <request index="3"  response="1000011010000000" foes="1110011011100000" cont="1"/>
        <request index="4"  response="0000011000000000" foes="0000011000000000" cont="0"/>
        <request index="5"  response="0000111000001111" foes="1000111000001111" cont="0"/>
        <request index="6"  response="0000111000001111" foes="1000111000001111" cont="0"/>
        <request index="7"  response="0110111000001110" foes="0110111000001110" cont="1"/>
        <request index="8"  response="0000000000000000" foes="0110000000000000" cont="0"/>
        <request index="9"  response="1000000010000000" foes="1110000011111000" cont="0"/>
        <request index="10" response="1000000010000000" foes="1110000011111000" cont="0"/>
        <request index="11" response="1000000010000110" foes="1110000011100110" cont="1"/>
        <request index="12" response="0000000000000110" foes="0000000000000110" cont="0"/>
        <request index="13" response="0000111100001110" foes="0000111110001110" cont="0"/>
        <request index="14" response="0000111100001110" foes="0000111110001110" cont="0"/>
        <request index="15" response="0000111001101110" foes="0000111001101110" cont="1"/>
    </junction>
    <junction id="J5" type="dead_end" x="0.00" y="0.00" incLanes="-E2_0 -E2_1" intLanes="" shape="0.00,0.00 6.40,0.00 0.00,0.00"/>
    <junction id="J6" type="dead_end" x="0.00" y="-400.00" incLanes="E3_0 E3_1" intLanes="" shape="0.00,-400.00 -6.40,-400.00 0.00,-400.00"/>

    <junction id=":J4_16_0" type="internal" x="-0.89" y="-194.56" incLanes=":J4_3_0 -E3_0 -E3_1" intLanes=":J4_5_0 :J4_5_1 :J4_7_0 :J4_8_0 :J4_9_0 :J4_9_1 :J4_13_0 :J4_13_1 :J4_15_0"/>
    <junction id=":J4_17_0" type="internal" x="5.44" y="-199.11" incLanes=":J4_7_0 E1_0 E1_1" intLanes=":J4_1_0 :J4_1_1 :J4_3_0 :J4_9_0 :J4_9_1 :J4_11_0 :J4_12_0 :J4_13_0 :J4_13_1"/>
    <junction id=":J4_18_0" type="internal" x="0.89" y="-205.44" incLanes=":J4_11_0 E2_0 E2_1" intLanes=":J4_0_0 :J4_1_0 :J4_1_1 :J4_5_0 :J4_5_1 :J4_7_0 :J4_13_0 :J4_13_1 :J4_15_0"/>
    <junction id=":J4_19_0" type="internal" x="-5.44" y="-200.89" incLanes=":J4_15_0 -E1.200_0 -E1.200_1" intLanes=":J4_1_0 :J4_1_1 :J4_3_0 :J4_4_0 :J4_5_0 :J4_5_1 :J4_9_0 :J4_9_1 :J4_11_0"/>

    <connection from="-E1.200" to="-E2" fromLane="0" toLane="0" via=":J4_4_0" tl="J4" linkIndex="4" dir="r" state="o"/>
    <connection from="-E1.200" to="-E1" fromLane="0" toLane="0" via=":J4_5_0" tl="J4" linkIndex="5" dir="s" state="o"/>
    <connection from="-E1.200" to="-E1" fromLane="1" toLane="1" via=":J4_5_1" tl="J4" linkIndex="6" dir="s" state="o"/>
    <connection from="-E1.200" to="E3" fromLane="1" toLane="1" via=":J4_7_0" tl="J4" linkIndex="7" dir="l" state="o"/>
    <connection from="-E3" to="E1.200" fromLane="0" toLane="0" via=":J4_8_0" tl="J4" linkIndex="8" dir="r" state="O"/>
    <connection from="-E3" to="-E2" fromLane="0" toLane="0" via=":J4_9_0" tl="J4" linkIndex="9" dir="s" state="O"/>
    <connection from="-E3" to="-E2" fromLane="1" toLane="1" via=":J4_9_1" tl="J4" linkIndex="10" dir="s" state="O"/>
    <connection from="-E3" to="-E1" fromLane="1" toLane="1" via=":J4_11_0" tl="J4" linkIndex="11" dir="l" state="o"/>
    <connection from="E1" to="E3" fromLane="0" toLane="0" via=":J4_12_0" tl="J4" linkIndex="12" dir="r" state="o"/>
    <connection from="E1" to="E1.200" fromLane="0" toLane="0" via=":J4_13_0" tl="J4" linkIndex="13" dir="s" state="o"/>
    <connection from="E1" to="E1.200" fromLane="1" toLane="1" via=":J4_13_1" tl="J4" linkIndex="14" dir="s" state="o"/>
    <connection from="E1" to="-E2" fromLane="1" toLane="1" via=":J4_15_0" tl="J4" linkIndex="15" dir="l" state="o"/>
    <connection from="E2" to="-E1" fromLane="0" toLane="0" via=":J4_0_0" tl="J4" linkIndex="0" dir="r" state="O"/>
    <connection from="E2" to="E3" fromLane="0" toLane="0" via=":J4_1_0" tl="J4" linkIndex="1" dir="s" state="O"/>
    <connection from="E2" to="E3" fromLane="1" toLane="1" via=":J4_1_1" tl="J4" linkIndex="2" dir="s" state="O"/>
    <connection from="E2" to="E1.200" fromLane="1" toLane="1" via=":J4_3_0" tl="J4" linkIndex="3" dir="l" state="o"/>

    <connection from=":J4_0" to="-E1" fromLane="0" toLane="0" dir="r" state="M"/>
    <connection from=":J4_1" to="E3" fromLane="0" toLane="0" dir="s" state="M"/>
    <connection from=":J4_1" to="E3" fromLane="1" toLane="1" dir="s" state="M"/>
    <connection from=":J4_3" to="E1.200" fromLane="0" toLane="1" via=":J4_16_0" dir="l" state="m"/>
    <connection from=":J4_16" to="E1.200" fromLane="0" toLane="1" dir="l" state="M"/>
    <connection from=":J4_4" to="-E2" fromLane="0" toLane="0" dir="r" state="M"/>
    <connection from=":J4_5" to="-E1" fromLane="0" toLane="0" dir="s" state="M"/>
    <connection from=":J4_5" to="-E1" fromLane="1" toLane="1" dir="s" state="M"/>
    <connection from=":J4_7" to="E3" fromLane="0" toLane="1" via=":J4_17_0" dir="l" state="m"/>
    <connection from=":J4_17" to="E3" fromLane="0" toLane="1" dir="l" state="M"/>
    <connection from=":J4_8" to="E1.200" fromLane="0" toLane="0" dir="r" state="M"/>
    <connection from=":J4_9" to="-E2" fromLane="0" toLane="0" dir="s" state="M"/>
    <connection from=":J4_9" to="-E2" fromLane="1" toLane="1" dir="s" state="M"/>
    <connection from=":J4_11" to="-E1" fromLane="0" toLane="1" via=":J4_18_0" dir="l" state="m"/>
    <connection from=":J4_18" to="-E1" fromLane="0" toLane="1" dir="l" state="M"/>
    <connection from=":J4_12" to="E3" fromLane="0" toLane="0" dir="r" state="M"/>
    <connection from=":J4_13" to="E1.200" fromLane="0" toLane="0" dir="s" state="M"/>
    <connection from=":J4_13" to="E1.200" fromLane="1" toLane="1" dir="s" state="M"/>
    <connection from=":J4_15" to="-E2" fromLane="0" toLane="1" via=":J4_19_0" dir="l" state="m"/>
    <connection from=":J4_19" to="-E2" fromLane="0" toLane="1" dir="l" state="M"/>

</net>
